data/rfi_simulation/der000/ckt7_Mon_rfi_04_der000.csv
fault_bus,fault_type,fault_R_ohm,Va_mag_pu,Va_ang_deg,Vb_mag_pu,Vb_ang_deg,Vc_mag_pu,Vc_ang_deg,Ia_mag_A,Ia_ang_deg,Ib_mag_A,Ib_ang_deg,Ic_mag_A,Ic_ang_deg
318412,SLG,0,0.129867,-112.9989,1.045316,-150.3765,1.044581,89.3644,92.0946,-79.5997,234.5583,-138.8327,234.3125,71.2859
318412,SLG,10,1.044361,-30.5655,1.04575,-150.4575,1.044333,89.5366,280.3883,-48.7386,246.7491,-167.256,276.0707,71.5315
318412,SLG,20,1.044367,-30.5427,1.045752,-150.4575,1.044332,89.5366,280.3736,-48.7264,246.754,-167.2491,276.0793,71.5362
318412,SLG,30,1.044369,-30.5351,1.045753,-150.4575,1.044331,89.5366,280.3688,-48.7223,246.7557,-167.2468,276.0822,71.5377
318412,SLG,40,1.04437,-30.5313,1.045753,-150.4575,1.044331,89.5366,280.3663,-48.7202,246.7565,-167.2456,276.0836,71.5385
318412,LL,0,0.128984,-112.5475,0.130646,127.1807,1.043237,89.4513,109.5151,-115.9912,54.7766,-140.7759,216.3768,86.2554
318412,LL,10,1.044363,-30.5655,1.045738,-150.503,1.044329,89.5365,280.3718,-48.7477,246.7807,-167.2779,276.0617,71.5192
318412,LL,20,1.044368,-30.5427,1.045746,-150.4802,1.04433,89.5365,280.3653,-48.7309,246.7698,-167.26,276.0748,71.53
318412,LL,30,1.04437,-30.5351,1.045749,-150.4726,1.04433,89.5366,280.3632,-48.7253,246.7662,-167.2541,276.0792,71.5336
318412,LL,40,1.04437,-30.5313,1.04575,-150.4688,1.04433,89.5366,280.3622,-48.7225,246.7644,-167.2511,276.0814,71.5354
318412,3LG,0,0.130073,-112.493,0.13025,127.5689,0.13007,7.5668,34.0135,-119.2862,30.0495,123.7962,33.3672,0.9896
318412,3LG,10,1.044359,-30.5655,1.04574,-150.5031,1.044317,89.491,280.3633,-48.76,246.7628,-167.2881,276.0922,71.4949
318412,3LG,20,1.044366,-30.5427,1.045747,-150.4803,1.044323,89.5138,280.3611,-48.7371,246.7608,-167.2652,276.0901,71.5179
318412,3LG,30,1.044368,-30.5351,1.045749,-150.4727,1.044326,89.5214,280.3604,-48.7294,246.7602,-167.2575,276.0893,71.5255
318412,3LG,40,1.044369,-30.5313,1.045751,-150.4689,1.044327,89.5252,280.3601,-48.7256,246.7599,-167.2537,276.089,71.5293
243937,SLG,0,0.012013,-51.8318,1.331308,174.7521,1.731078,103.5467,181.4201,-72.2561,289.0223,-162.0425,288.4556,94.0047
243937,SLG,10,1.037899,-30.6692,1.048012,-150.7096,1.047224,89.7699,281.3307,-48.8945,246.7738,-167.3232,275.6266,71.6222
243937,SLG,20,1.041127,-30.5948,1.046887,-150.584,1.045777,89.6539,280.8449,-48.8046,246.7661,-167.2828,275.857,71.5817
243937,SLG,30,1.042207,-30.5699,1.04651,-150.5419,1.045295,89.6149,280.6829,-48.7745,246.7637,-167.2693,275.9339,71.5681
243937,SLG,40,1.042748,-30.5574,1.046321,-150.5208,1.045053,89.5954,280.6019,-48.7594,246.7625,-167.2625,275.9724,71.5613
243937,LL,0,0.030064,-67.635,0.026042,117.1801,1.485625,84.7982,126.3866,-121.7687,116.1742,-127.3407,341.605,81.0883
243937,LL,10,1.040793,-30.436,1.041555,-150.8586,1.049438,89.5182,280.8636,-48.8108,247.5216,-167.5033,275.5635,71.5248
243937,LL,20,1.042572,-30.4775,1.043647,-150.6586,1.046898,89.5275,280.6118,-48.7626,247.1413,-167.373,275.8232,71.533
243937,LL,30,1.04317,-30.4916,1.044347,-150.5917,1.046045,89.5305,280.5276,-48.7465,247.0141,-167.3295,275.9109,71.5356
243937,LL,40,1.043469,-30.4986,1.044698,-150.5582,1.045618,89.5321,280.4855,-48.7384,246.9504,-167.3077,275.955,71.5369
243937,3LG,0,0.03237,-95.4213,0.032398,144.6412,0.03236,24.6227,8.4632,-102.2151,7.4752,140.8594,8.3021,18.0539
243937,3LG,10,1.043027,-30.6878,1.044404,-150.6252,1.042982,89.3685,280.7847,-48.9108,247.1361,-167.4428,276.5105,71.3437
243937,3LG,20,1.043701,-30.6039,1.04508,-150.5414,1.043657,89.4525,280.5715,-48.8125,246.9472,-167.3425,276.2988,71.4422
243937,3LG,30,1.043925,-30.5759,1.045305,-150.5134,1.043881,89.4805,280.5006,-48.7797,246.8844,-167.3091,276.2285,71.4751
243937,3LG,40,1.044037,-30.5619,1.045417,-150.4994,1.043994,89.4945,280.4651,-48.7633,246.853,-167.2924,276.1933,71.4915
157347,SLG,0,0.417086,-23.8206,1.097397,-168.4262,1.349617,96.5864,216.6469,-52.5993,269.1372,-158.8142,284.7792,87.2288
157347,SLG,10,1.036048,-30.9948,1.050641,-150.6807,1.045471,89.881,281.8242,-49.0699,246.5373,-167.3349,275.7605,71.595
157347,SLG,20,1.040209,-30.7595,1.048225,-150.569,1.044876,89.7101,281.0905,-48.8929,246.6439,-167.2884,275.9254,71.5678
157347,SLG,30,1.041596,-30.6801,1.047408,-150.5318,1.044689,89.6526,280.8464,-48.8335,246.6813,-167.273,275.9799,71.5587
157347,SLG,40,1.04229,-30.6402,1.046997,-150.5132,1.044597,89.6237,280.7244,-48.8037,246.7004,-167.2653,276.007,71.5542
157347,LL,0,0.51035,-33.0056,0.34862,-161.1442,1.261889,84.7698,163.0005,-69.865,156.7365,-149.6531,318.799,80.6521
157347,LL,10,1.037229,-30.6481,1.042294,-151.1545,1.05031,89.6545,281.4974,-49.0102,247.7327,-167.6706,275.3821,71.4902
157347,LL,20,1.04076,-30.5853,1.044057,-150.8082,1.047337,89.5978,280.9299,-48.8636,247.2433,-167.4568,275.7292,71.5162
157347,LL,30,1.041956,-30.5638,1.04463,-150.6918,1.046339,89.5779,280.74,-48.8141,247.0812,-167.3853,275.8475,71.5246
157347,LL,40,1.042556,-30.553,1.044914,-150.6334,1.045838,89.5678,280.6449,-48.7892,247.0004,-167.3496,275.9071,71.5287
157347,3LG,0,0.447894,-42.3342,0.448308,-162.2795,0.447805,77.7085,117.1064,-49.1305,103.4403,-166.0587,114.8794,71.1398
157347,3LG,10,1.042047,-30.8737,1.043424,-150.8116,1.042009,89.1824,281.0948,-49.1179,247.4107,-167.6528,276.8171,71.1364
157347,3LG,20,1.043218,-30.6974,1.044597,-150.6351,1.043178,89.3589,280.7239,-48.9164,247.0822,-167.4479,276.4495,71.3382
157347,3LG,30,1.043604,-30.6383,1.044984,-150.576,1.043564,89.418,280.6016,-48.8491,246.9738,-167.3794,276.3283,71.4057
157347,3LG,40,1.043797,-30.6088,1.045178,-150.5464,1.043756,89.4476,280.5407,-48.8154,246.9199,-167.3451,276.268,71.4394
298162,SLG,0,0.003539,-89.5804,1.230851,-171.0825,1.401711,102.1679,25620.3744,-89.4623,276.4166,-152.2887,260.987,87.4612
298162,SLG,10,1.028475,-31.9547,1.058038,-150.6794,1.041838,90.235,1014.3438,-36.8257,245.9834,-167.4155,276.0153,71.5351
298162,SLG,20,1.036445,-31.2428,1.051967,-150.5657,1.042975,89.8872,647.2287,-38.9519,246.3547,-167.3277,276.0599,71.5357
298162,SLG,30,1.039093,-31.0031,1.049912,-150.529,1.043402,89.7706,524.2803,-40.5614,246.4857,-167.2989,276.0711,71.5369
298162,SLG,40,1.040415,-30.8827,1.048878,-150.5109,1.043625,89.7122,462.8584,-41.7389,246.5526,-167.2846,276.076,71.5377
298162,LL,0,0.00557,-83.4149,0.00489,123.2727,1.355267,86.8122,40183.0173,-83.5103,35161.2132,123.4297,304.0505,83.7685
298162,LL,10,1.025986,-31.2471,1.041993,-152.1069,1.054086,89.9978,1011.7462,-36.3174,991.539,-156.1084,274.8417,71.3553
298162,LL,20,1.035077,-30.8898,1.044006,-151.2871,1.04919,89.7755,646.4224,-38.756,617.4058,-157.8167,275.4562,71.4507
298162,LL,30,1.038153,-30.7679,1.044619,-151.0116,1.047565,89.6977,523.883,-40.4555,492.9038,-159.2413,275.6646,71.4813
298162,LL,40,1.039699,-30.7065,1.044914,-150.8735,1.046754,89.6582,462.6199,-41.6723,430.831,-160.3225,275.7697,71.4963
298162,3LG,0,0.005876,-100.9568,0.005876,139.0425,0.005876,19.0438,42307.9343,-100.957,42307.4236,139.0423,42307.5546,19.0436
298162,3LG,10,1.038065,-31.4758,1.039462,-151.417,1.038081,88.5795,1019.2675,-36.4738,988.7714,-155.6159,1015.3231,83.6904
298162,3LG,20,1.041246,-30.9993,1.042636,-150.9387,1.041233,89.0566,648.0269,-38.8184,616.5128,-157.6285,643.9855,81.3905
298162,3LG,30,1.042294,-30.8398,1.043681,-150.7786,1.042272,89.2163,524.4587,-40.494,492.4454,-159.1426,520.3665,79.7367
298162,3LG,40,1.042816,-30.76,1.044202,-150.6984,1.042789,89.2963,462.865,-41.7007,430.5451,-160.2628,458.7402,78.5419
165448,SLG,0,0.078898,-21.0327,1.207272,-169.9972,1.377724,101.2341,23763.9783,-90.3517,277.1949,-152.0966,259.2979,87.5382
165448,SLG,10,1.028407,-31.9507,1.058016,-150.681,1.041877,90.2347,1013.818,-36.9615,245.9061,-167.4225,276.0667,71.5256
165448,SLG,20,1.036422,-31.2416,1.051961,-150.5662,1.042987,89.8871,647.1218,-39.0228,246.3135,-167.3309,276.0869,71.5305
165448,SLG,30,1.03908,-31.0024,1.049909,-150.5293,1.043408,89.7706,524.2435,-40.6096,246.4577,-167.301,276.0893,71.5333
165448,SLG,40,1.040406,-30.8823,1.048876,-150.511,1.043629,89.7122,462.8437,-41.7755,246.5314,-167.2862,276.0898,71.5349
165448,LL,0,0.08697,-28.6678,0.066955,-148.715,1.332028,86.6818,37154.2926,-83.7252,32802.9127,123.3682,303.6038,83.9597
165448,LL,10,1.025979,-31.2424,1.041894,-152.1058,1.054108,89.9955,1010.7825,-36.4265,991.621,-156.2298,274.7822,71.3396
165448,LL,20,1.035071,-30.8883,1.043975,-151.2868,1.049198,89.7748,646.2068,-38.8185,617.4351,-157.8792,275.4257,71.4431
165448,LL,30,1.038148,-30.7672,1.044603,-151.0114,1.04757,89.6974,523.8014,-40.5002,492.9186,-159.2837,275.6442,71.4763
165448,LL,40,1.039696,-30.706,1.044904,-150.8734,1.046758,89.658,462.5827,-41.7072,430.8401,-160.3547,275.7544,71.4926
165448,3LG,0,0.077195,-32.9823,0.077195,-152.9834,0.077195,87.0185,39269.7952,-101.039,39269.319,138.9604,39269.4431,18.9617
165448,3LG,10,1.038026,-31.4743,1.039428,-151.4158,1.038049,88.581,1018.8596,-36.5743,988.3964,-155.7119,1014.8883,83.5925
165448,3LG,20,1.041231,-30.9987,1.042624,-150.9383,1.041222,89.0572,647.9222,-38.8763,616.4202,-157.683,643.8641,81.3346
165448,3LG,30,1.042285,-30.8395,1.043674,-150.7784,1.042265,89.2166,524.4128,-40.5358,492.406,-159.1817,520.3086,79.6965
165448,3LG,40,1.04281,-30.7597,1.044197,-150.6983,1.042784,89.2965,462.8402,-41.7336,430.5243,-160.2936,458.7059,78.5102
165449,SLG,0,0.495988,-23.0756,1.101169,-162.936,1.244972,96.0961,13726.8781,-95.7188,282.7508,-151.4386,252.0607,88.4067
165449,SLG,10,1.027739,-31.9108,1.057792,-150.698,1.042263,90.2324,1008.9581,-38.318,245.1821,-167.4854,276.5326,71.4489
165449,SLG,20,1.036192,-31.2294,1.051901,-150.5716,1.043106,89.8869,646.2108,-39.7308,245.8753,-167.3568,276.3393,71.4847
165449,SLG,30,1.038952,-30.996,1.04988,-150.5321,1.043471,89.7706,523.9646,-41.0905,246.1578,-167.3174,276.2616,71.5011
165449,SLG,40,1.04032,-30.8781,1.048859,-150.5129,1.043669,89.7123,462.7568,-42.1399,246.3035,-167.2982,276.2205,71.5101
165449,LL,0,0.509696,-27.7608,0.452416,-145.0626,1.204381,86.6684,21504.988,-85.5809,19843.5396,121.3527,303.7525,84.9057
165449,LL,10,1.025932,-31.196,1.040896,-152.0955,1.054333,89.972,1001.4245,-37.4838,993.141,-157.4375,274.038,71.2061
165449,LL,20,1.035008,-30.8738,1.043668,-151.2843,1.049284,89.7685,644.1415,-39.4312,617.9714,-158.4938,275.0487,71.3792
165449,LL,30,1.038099,-30.7595,1.044442,-151.0103,1.04762,89.6944,523.0379,-40.9383,493.1912,-159.6976,275.3928,71.4342
165449,LL,40,1.039656,-30.701,1.0448,-150.8726,1.046792,89.6562,462.2478,-42.0498,431.0074,-160.6674,275.5658,71.4613
165449,3LG,0,0.474688,-28.4882,0.474674,-148.4913,0.474695,91.5113,23217.0149,-102.6668,23216.9186,137.3333,23216.7724,17.3338
165449,3LG,10,1.037648,-31.459,1.039093,-151.4048,1.037739,88.5959,1015.3211,-37.551,985.2468,-156.6393,1011.0607,82.6456
165449,3LG,20,1.041088,-30.9932,1.042505,-150.9349,1.041115,89.0626,647.021,-39.4388,615.6625,-158.2075,642.7764,80.7941
165449,3LG,30,1.042201,-30.8363,1.043606,-150.7766,1.042205,89.2198,524.0205,-40.9416,492.091,-159.5573,519.7798,79.3079
165449,3LG,40,1.04275,-30.7575,1.04415,-150.6971,1.042743,89.2987,462.63,-42.0538,430.3634,-160.5889,458.3881,78.2041
287274,SLG,0,0.647458,-28.7941,1.091385,-159.3743,1.180924,94.9053,9874.3559,-91.5535,282.0281,-151.3265,250.8603,88.0346
287274,SLG,10,1.027447,-31.8689,1.057493,-150.7081,1.042555,90.223,998.8498,-39.2885,245.4931,-167.546,277.0467,71.4249
287274,SLG,20,1.036076,-31.2174,1.051823,-150.5749,1.043194,89.8847,643.8269,-40.239,245.7508,-167.3744,276.6175,71.4658
287274,SLG,30,1.038884,-30.99,1.049842,-150.534,1.043516,89.7696,522.9684,-41.4326,246.0662,-167.3288,276.4512,71.4868
287274,SLG,40,1.040273,-30.8743,1.048836,-150.5141,1.043698,89.7117,462.2308,-42.3967,246.2317,-167.3065,276.3643,71.4987
287274,LL,0,0.692399,-32.7266,0.603153,-153.1645,1.161318,87.5119,14796.8757,-77.1128,14468.7141,131.0109,303.9872,85.0832
287274,LL,10,1.027236,-31.1793,1.041461,-152.1099,1.055916,89.9284,986.083,-35.0921,986.8304,-155.0684,259.5945,83.3475
287274,LL,20,1.03502,-30.8623,1.043458,-151.2784,1.049312,89.7624,641.0692,-39.861,616.7942,-158.9465,275.0694,71.3457
287274,LL,30,1.038092,-30.7536,1.044332,-151.0076,1.047638,89.6915,521.7699,-41.2431,492.713,-159.9988,275.4064,71.4122
287274,LL,40,1.039645,-30.6972,1.04473,-150.8711,1.046805,89.6544,461.5961,-42.2858,430.7575,-160.8922,275.5758,71.4448
287274,3LG,0,0.649709,-35.2016,0.649674,-155.2063,0.649725,84.7968,16389.5041,-93.2117,16390.0181,146.7894,16389.257,26.7887
287274,3LG,10,1.037443,-31.4406,1.038912,-151.3891,1.037576,88.6139,1006.9247,-38.2613,977.0798,-157.3164,1002.5033,81.9556
287274,3LG,20,1.041003,-30.9875,1.042435,-150.9306,1.041053,89.0682,644.9925,-39.8428,613.7208,-158.5862,640.6334,80.4047
287274,3LG,30,1.042149,-30.8333,1.043565,-150.7745,1.042168,89.2228,523.1632,-41.2285,491.2801,-159.8241,518.836,79.0324
287274,3LG,40,1.042713,-30.7555,1.044121,-150.6959,1.042718,89.3006,462.1758,-42.2772,429.9387,-160.7958,457.8648,77.99
283954,SLG,0,0.712947,-28.5369,1.078899,-158.0562,1.16064,93.9665,8286.5724,-92.6883,283.5635,-151.6677,251.6042,88.4392
283954,SLG,10,1.027118,-31.8435,1.057323,-150.7179,1.042785,90.2197,995.2174,-40.0503,245.7916,-167.5854,277.2588,71.4165
283954,SLG,20,1.035956,-31.2102,1.051786,-150.578,1.043263,89.8843,643.1862,-40.6312,245.5451,-167.3778,276.7434,71.4549
283954,SLG,30,1.038816,-30.9863,1.049825,-150.5356,1.043552,89.7695,522.7874,-41.6944,245.9217,-167.3299,276.5409,71.4776
283954,SLG,40,1.040226,-30.8721,1.048826,-150.5152,1.043721,89.7117,462.1853,-42.5922,246.1204,-167.3071,276.4332,71.4912
283954,LL,0,0.749631,-31.8961,0.671591,-151.7669,1.1413,87.6616,12465.5991,-77.8939,12224.1567,130.0565,305.6269,85.0774
283954,LL,10,1.02724,-31.1528,1.040882,-152.1032,1.056049,89.9145,980.2102,-35.6617,987.315,-155.7729,258.8606,83.372
283954,LL,20,1.034999,-30.8541,1.043287,-151.2766,1.049358,89.7585,639.7466,-40.1844,617.0617,-159.2832,274.8563,71.3332
283954,LL,30,1.03807,-30.7493,1.044245,-151.0069,1.047666,89.6897,521.2872,-41.4714,492.8982,-160.2179,275.26,71.4038
283954,LL,40,1.039627,-30.6945,1.044674,-150.8707,1.046825,89.6534,461.3916,-42.4628,430.8901,-161.0533,275.4695,71.439
283954,3LG,0,0.710518,-33.6484,0.710468,-153.655,0.71055,86.3492,13831.642,-94.0602,13832.5182,145.9427,13831.239,25.9398
283954,3LG,10,1.037248,-31.4313,1.038742,-151.3823,1.03742,88.623,1004.4046,-38.7948,974.7856,-157.82,999.7796,81.4366
283954,3LG,20,1.040928,-30.9845,1.042376,-150.9288,1.040999,89.0713,644.4403,-40.1393,613.2476,-158.8582,639.9445,80.1183
283954,3LG,30,1.042104,-30.8316,1.043532,-150.7737,1.042138,89.2245,522.9555,-41.4374,491.1131,-160.0128,518.5281,78.8312
283954,3LG,40,1.042682,-30.7544,1.044099,-150.6953,1.042698,89.3018,462.0818,-42.4393,429.8695,-160.9408,457.6919,77.8341
283956,SLG,0,0.757065,-31.717,1.088483,-156.7825,1.134755,94.0397,7223.5712,-85.2738,275.6128,-152.0162,254.9875,86.8903
283956,SLG,10,1.027326,-31.8164,1.057102,-150.7157,1.042856,90.2079,982.7875,-40.251,245.7976,-167.5811,277.2737,71.4191
283956,SLG,20,1.036002,-31.2029,1.051725,-150.5776,1.043287,89.8813,639.982,-40.7385,245.5771,-167.3789,276.7553,71.4554
283956,SLG,30,1.038836,-30.983,1.049797,-150.5355,1.043563,89.7682,521.3556,-41.7614,245.9398,-167.331,276.5502,71.4776
283956,SLG,40,1.040238,-30.8701,1.04881,-150.5151,1.043728,89.7109,461.3784,-42.6382,246.1327,-167.3079,276.4407,71.491
283956,LL,0,0.804874,-33.8217,0.731007,-155.4534,1.132083,88.3813,10495.0852,-69.6238,10478.5848,139.4712,299.9054,84.5501
283956,LL,10,1.027641,-31.1429,1.040781,-152.0716,1.055846,89.9032,969.1567,-35.6258,976.3163,-156.0793,259.0363,83.3585
283956,LL,20,1.035105,-30.8509,1.043247,-151.2685,1.04931,89.7552,636.7541,-40.2076,614.5068,-159.4487,274.9087,71.3306
283956,LL,30,1.038118,-30.7477,1.044224,-151.0033,1.047645,89.6881,519.9203,-41.4911,491.7896,-160.3177,275.2911,71.4019
283956,LL,40,1.039654,-30.6936,1.044661,-150.8687,1.046813,89.6524,460.6121,-42.4785,430.2768,-161.1207,275.4913,71.4375
283956,3LG,0,0.774425,-36.1726,0.774467,-156.1837,0.774518,83.8263,11720.1168,-85.0892,11719.8832,154.9222,11719.5853,34.9128
283956,3LG,10,1.037287,-31.4185,1.038778,-151.3692,1.037453,88.6358,995.3031,-38.9579,965.5877,-157.9848,990.7018,81.2714
283956,3LG,20,1.040936,-30.9812,1.042382,-150.9254,1.041005,89.0746,642.1439,-40.2208,610.9221,-158.9416,637.6566,80.0359
283956,3LG,30,1.042107,-30.8301,1.043534,-150.7721,1.042141,89.226,521.9388,-41.4875,490.082,-160.0648,517.5156,78.7805
283956,3LG,40,1.042683,-30.7536,1.0441,-150.6945,1.042699,89.3027,461.5127,-42.4737,429.2917,-160.9768,457.1252,77.7993
189963,SLG,0,0.819612,-30.9798,1.076063,-155.5513,1.117359,93.0397,5673.3645,-86.129,286.5106,-150.5807,239.2847,88.9121
189963,SLG,10,1.027644,-31.7879,1.058209,-150.7735,1.044789,90.1864,970.2984,-38.8339,237.1477,-153.6147,263.688,82.9475
189963,SLG,20,1.03578,-31.1847,1.051607,-150.5837,1.04343,89.8779,637.4513,-41.6121,245.5709,-167.4031,277.6353,71.4519
189963,SLG,30,1.0387,-30.9733,1.049737,-150.539,1.043641,89.7665,520.3526,-42.3797,245.8853,-167.3451,277.1532,71.4706
189963,SLG,40,1.040141,-30.8638,1.048771,-150.5175,1.043779,89.7099,460.8879,-43.1184,246.0829,-167.3181,276.8995,71.4839
189963,LL,0,0.870093,-32.6659,0.797698,-154.4396,1.113479,88.4038,7881.6519,-68.3197,8172.3407,141.9103,297.9822,86.2948
189963,LL,10,1.027598,-31.0852,1.039656,-152.0457,1.056031,89.8717,955.1329,-37.1349,971.0392,-157.5951,259.6485,83.3228
189963,LL,20,1.036189,-30.8528,1.044108,-151.2973,1.050901,89.7231,628.681,-36.2086,610.5275,-155.0276,261.2121,83.406
189963,LL,30,1.038067,-30.7381,1.044033,-150.9996,1.047684,89.6831,518.7616,-42.0901,491.2942,-160.8512,275.6233,71.3858
189963,LL,40,1.03961,-30.6873,1.044533,-150.8664,1.046841,89.6492,460.1286,-42.9512,430.0396,-161.5378,275.7395,71.4252
189963,3LG,0,0.841442,-34.9289,0.841419,-154.9397,0.841624,85.0687,8947.8098,-82.9381,8948.0465,157.0649,8944.2465,37.063
189963,3LG,10,1.038055,-31.4219,1.039633,-151.3778,1.038311,88.6341,983.9193,-37.1662,955.4331,-156.0193,978.669,83.0828
189963,3LG,20,1.040759,-30.9728,1.042246,-150.9193,1.04087,89.0838,640.0184,-40.9706,608.813,-159.6474,635.1115,79.2878
189963,3LG,30,1.041994,-30.8256,1.04345,-150.7691,1.042056,89.2312,521.1998,-42.042,489.326,-160.586,516.4837,78.2244
189963,3LG,40,1.042601,-30.7506,1.04404,-150.6926,1.042637,89.3062,461.2264,-42.9164,428.978,-161.3933,456.6134,77.3538
181977,SLG,0,0.853228,-31.0806,1.072328,-154.8043,1.105792,92.5921,4860.6302,-84.9853,282.0654,-150.7595,241.0405,88.1656
181977,SLG,10,1.027496,-31.7528,1.057964,-150.7804,1.045013,90.1782,960.3043,-39.5538,237.2894,-153.5968,263.4979,82.9071
181977,SLG,20,1.035716,-31.1749,1.051539,-150.586,1.043498,89.8759,635.1588,-41.9759,245.5564,-167.4114,277.6618,71.4332
181977,SLG,30,1.038661,-30.9686,1.049706,-150.5402,1.043674,89.7657,519.4185,-42.6102,245.8536,-167.35,277.1767,71.456
181977,SLG,40,1.040115,-30.861,1.048754,-150.5183,1.043799,89.7095,460.4076,-43.2825,246.0548,-167.3218,276.9194,71.472
181977,LL,0,0.901033,-32.4424,0.835137,-154.1556,1.103641,88.5604,6635.1358,-66.3887,6979.4152,144.2674,296.8056,85.6758
181977,LL,10,1.027872,-31.0571,1.039166,-152.0209,1.055996,89.8533,942.7267,-37.5867,964.9201,-158.2971,259.594,83.2817
181977,LL,20,1.036231,-30.8435,1.043942,-151.2923,1.05092,89.7181,625.4555,-36.4764,609.4032,-155.367,261.0142,83.3924
181977,LL,30,1.038084,-30.7336,1.043954,-150.9971,1.047692,89.6807,517.3774,-42.278,490.8797,-161.0634,275.5729,71.3661
181977,LL,40,1.039615,-30.6845,1.044484,-150.8651,1.046848,89.6478,459.383,-43.0914,429.8498,-161.6873,275.7004,71.4101
181977,3LG,0,0.875563,-34.5033,0.875617,-154.5144,0.875823,85.4973,7581.787,-80.6827,7580.5618,159.3211,7576.7007,39.3181
181977,3LG,10,1.037956,-31.4067,1.039535,-151.3633,1.038222,88.649,975.6028,-37.645,947.1446,-156.4933,970.3567,82.6109
181977,3LG,20,1.040718,-30.9683,1.042208,-150.9153,1.040836,89.0882,637.982,-41.2318,606.7846,-159.9046,633.0364,79.0314
181977,3LG,30,1.041969,-30.8234,1.043428,-150.7673,1.042036,89.2333,520.3372,-42.2164,488.4596,-160.7569,515.5806,78.0542
181977,3LG,40,1.042583,-30.7493,1.044025,-150.6915,1.042624,89.3075,460.7635,-43.0458,428.5159,-161.5194,456.1197,77.2272
181924,SLG,0,0.860336,-30.1534,1.065738,-154.7544,1.107483,92.2583,4667.4386,-88.8948,285.437,-150.6838,239.4949,88.8206
181924,SLG,10,1.027032,-31.7449,1.05795,-150.7921,1.045201,90.1839,964.5056,-40.1975,237.4997,-153.589,263.1156,82.8428
181924,SLG,20,1.035563,-31.1729,1.051541,-150.5897,1.043552,89.878,636.9165,-42.2773,245.5806,-167.4141,277.5929,71.3929
181924,SLG,30,1.038576,-30.9679,1.049715,-150.542,1.043701,89.7671,520.431,-42.8078,245.6888,-167.343,277.1357,71.4265
181924,SLG,40,1.040058,-30.8606,1.048761,-150.5195,1.043816,89.7105,461.0975,-43.4283,245.9265,-167.316,276.8902,71.4489
181924,LL,0,0.896265,-31.883,0.836524,-152.552,1.099708,88.4355,6678.0776,-71.2693,6841.3308,138.043,298.7248,85.9278
181924,LL,10,1.027758,-31.043,1.038617,-152.0265,1.056149,89.8446,944.8176,-38.0192,972.2026,-158.9503,259.2161,83.2201
181924,LL,20,1.03616,-30.8384,1.043768,-151.2955,1.050993,89.7162,626.3402,-36.7418,611.748,-155.6918,260.5636,83.3795
181924,LL,30,1.038041,-30.7309,1.043868,-150.9986,1.047729,89.68,517.9981,-42.4531,492.1095,-161.2563,275.3342,71.3402
181924,LL,40,1.039584,-30.6827,1.044429,-150.8661,1.046873,89.6474,459.8345,-43.2281,430.6205,-161.83,275.5204,71.3907
181924,3LG,0,0.869382,-33.3358,0.869419,-153.3449,0.869619,86.6661,7551.9741,-86.4449,7551.0906,153.5521,7547.0493,33.5471
181924,3LG,10,1.037724,-31.4087,1.039302,-151.3656,1.037991,88.6469,980.9975,-38.1017,952.4532,-156.9685,975.7301,82.1508
181924,3LG,20,1.040641,-30.9686,1.042133,-150.9157,1.040761,89.088,639.6842,-41.4615,608.4432,-160.1469,634.7115,78.799
181924,3LG,30,1.041926,-30.8234,1.043387,-150.7673,1.041995,89.2334,521.2145,-42.3772,489.3048,-160.9281,516.436,77.891
181924,3LG,40,1.042554,-30.7492,1.043997,-150.6915,1.042596,89.3076,461.322,-43.1707,429.0491,-161.6532,456.6604,77.1002
181993,SLG,0,0.874262,-29.9691,1.062722,-154.468,1.103785,92.0065,4328.4571,-89.7418,284.4925,-150.9644,240.6655,88.735
181993,SLG,10,1.026818,-31.7276,1.057846,-150.7989,1.04536,90.1823,961.8391,-40.7125,237.6248,-153.5542,262.8679,82.821
181993,SLG,20,1.035479,-31.1689,1.051522,-150.5921,1.043599,89.8784,636.8479,-42.517,245.581,-167.3941,277.5083,71.3667
181993,SLG,30,1.03853,-30.9662,1.049711,-150.5432,1.043723,89.7676,520.5772,-42.9524,245.6257,-167.3269,277.0832,71.4071
181993,SLG,40,1.040027,-30.8597,1.048761,-150.5203,1.043829,89.7109,461.2712,-43.5273,245.8753,-167.3038,276.8522,71.4335
181993,LL,0,0.905585,-31.6365,0.85086,-152.0418,1.095212,88.4644,6249.7459,-72.3385,6367.7232,136.7371,298.985,85.7503
181993,LL,10,1.027868,-31.0274,1.038214,-152.017,1.056175,89.8332,940.4444,-38.3105,972.4269,-159.4862,259.1209,83.2145
181993,LL,20,1.036167,-30.8332,1.04364,-151.2944,1.051021,89.7132,625.3074,-36.9068,612.2318,-155.9389,260.3946,83.3805
181993,LL,30,1.038036,-30.7284,1.043805,-150.9985,1.047748,89.6787,517.7409,-42.5666,492.5937,-161.3971,275.2155,71.3334
181993,LL,40,1.039578,-30.6812,1.044391,-150.8662,1.046887,89.6468,459.7563,-43.3106,430.9729,-161.9258,275.4279,71.3847
181993,3LG,0,0.880056,-32.8568,0.880125,-152.8634,0.8803,87.1474,7052.3727,-87.6691,7050.7887,152.3209,7047.0018,32.3182
181993,3LG,10,1.037613,-31.4041,1.039184,-151.3605,1.03787,88.6514,979.9368,-38.4339,951.2343,-157.32,974.7152,81.813
181993,3LG,20,1.040604,-30.9676,1.042093,-150.9145,1.04072,89.089,639.772,-41.6182,608.4792,-160.318,634.8139,78.6389
181993,3LG,30,1.041906,-30.823,1.043365,-150.7668,1.041973,89.2338,521.3603,-42.475,489.4202,-161.0371,516.5888,77.7906
181993,3LG,40,1.042541,-30.749,1.043983,-150.6912,1.042581,89.3078,461.4612,-43.2399,429.1673,-161.7317,456.8038,77.0287
181994,SLG,0,0.888223,-29.9159,1.060484,-154.1598,1.099462,91.7811,3990.755,-90.0699,281.7094,-151.5711,244.0567,88.4484
181994,SLG,10,1.026688,-31.7061,1.057692,-150.804,1.045516,90.1774,956.7851,-41.2139,237.7707,-153.5752,262.895,82.8519
181994,SLG,20,1.035428,-31.1632,1.051483,-150.5939,1.043645,89.8774,635.8755,-42.7489,245.638,-167.3994,277.5234,71.3726
181994,SLG,30,1.038504,-30.9637,1.049695,-150.5441,1.043744,89.7672,520.1857,-43.0884,245.6263,-167.3292,277.0962,71.4097
181994,SLG,40,1.040011,-30.8582,1.048751,-150.5208,1.043841,89.7106,461.0651,-43.6178,245.873,-167.3055,276.8631,71.4349
181994,LL,0,0.91669,-31.4274,0.866663,-151.7626,1.090992,88.5159,5754.7994,-72.9154,5846.6364,136.2961,299.4107,85.2912
181994,LL,10,1.028045,-31.0118,1.03785,-152.0013,1.056146,89.8206,934.2622,-38.5837,969.9958,-160.0267,259.365,83.2075
181994,LL,20,1.036206,-30.8281,1.043524,-151.2909,1.051025,89.7096,623.5594,-37.047,611.7979,-156.1827,260.4332,83.3798
181994,LL,30,1.038051,-30.7259,1.04375,-150.9971,1.047752,89.677,517.0393,-42.6615,492.5678,-161.5391,275.2285,71.3321
181994,LL,40,1.039585,-30.6797,1.044358,-150.8654,1.046889,89.6458,459.3632,-43.3762,430.9715,-162.0212,275.4363,71.3835
181994,3LG,0,0.893182,-32.515,0.893304,-152.5181,0.893436,87.4924,6483.1559,-88.1914,6480.3768,151.7885,6477.2085,31.7909
181994,3LG,10,1.037523,-31.397,1.039088,-151.3527,1.037769,88.6586,976.8278,-38.7701,947.9221,-157.6749,971.6213,81.4689
181994,3LG,20,1.040576,-30.9658,1.042063,-150.9124,1.040688,89.0908,639.1547,-41.7704,607.7936,-160.4843,634.202,78.4813
181994,3LG,30,1.041892,-30.8222,1.043351,-150.7658,1.041957,89.2347,521.1026,-42.5648,489.1228,-161.1377,516.3332,77.6964
181994,3LG,40,1.042533,-30.7485,1.043974,-150.6906,1.042571,89.3084,461.3216,-43.3005,429.0007,-161.801,456.6654,76.9645
181891,SLG,0,0.905778,-30.2855,1.060492,-153.7179,1.092006,91.6067,3568.8516,-87.9059,276.2583,-152.6175,249.9863,87.8058
181891,SLG,10,1.026796,-31.6684,1.057379,-150.8051,1.045685,90.1626,942.9549,-41.7386,238.091,-153.6576,263.2834,82.965
181891,SLG,20,1.035438,-31.152,1.051387,-150.5948,1.043706,89.8731,632.2474,-43.0378,245.8531,-167.4253,277.6716,71.4244
181891,SLG,30,1.038507,-30.9582,1.049648,-150.5445,1.043774,89.765,518.4563,-43.2682,245.6847,-167.3429,277.2014,71.4434
181891,SLG,40,1.040013,-30.8549,1.048724,-150.521,1.043859,89.7093,460.0254,-43.7429,245.8586,-167.3131,276.9445,71.4597
181891,LL,0,0.935711,-31.546,0.887879,-152.1264,1.086258,88.6604,5023.6238,-69.9559,5182.9507,139.9063,299.5833,84.4739
181891,LL,10,1.028471,-30.9908,1.03757,-151.9658,1.055977,89.8028,919.9507,-38.8221,959.019,-160.5872,260.0101,83.2347
181891,LL,20,1.036325,-30.8206,1.043414,-151.2812,1.05099,89.7036,619.2577,-37.1828,608.8691,-156.4593,260.657,83.402
181891,LL,30,1.038106,-30.7222,1.043695,-150.9925,1.047737,89.6741,515.082,-42.7723,491.3514,-161.7229,275.3405,71.3518
181891,LL,40,1.039618,-30.6775,1.044325,-150.8626,1.04688,89.644,458.2002,-43.4544,430.2342,-162.1497,275.5205,71.3984
181891,3LG,0,0.914386,-32.6961,0.914636,-152.6956,0.914667,87.3159,5696.8342,-84.7782,5691.2351,155.1962,5690.1769,35.2052
181891,3LG,10,1.037542,-31.3801,1.039082,-151.335,1.037769,88.6745,965.5811,-39.0818,936.5788,-158.0029,960.7036,81.1642
181891,3LG,20,1.040577,-30.9609,1.042053,-150.9074,1.040683,89.0951,636.1638,-41.9415,604.8076,-160.6688,631.3534,78.3193
181891,3LG,30,1.041893,-30.8198,1.043344,-150.7634,1.041954,89.2367,519.6713,-42.6701,487.7052,-161.2532,514.989,77.5993
181891,3LG,40,1.042534,-30.747,1.04397,-150.6891,1.04257,89.3095,460.4603,-43.3733,428.154,-161.8819,455.8658,76.899
255335,SLG,0,0.910128,-30.1665,1.059233,-153.6366,1.091174,91.5135,3460.4164,-88.6082,276.3153,-152.3322,248.7874,87.7256
255335,SLG,10,1.026654,-31.6622,1.057358,-150.809,1.045758,90.1638,942.867,-41.9991,237.986,-153.6072,262.9655,82.9042
255335,SLG,20,1.036425,-31.1796,1.052865,-150.6303,1.045153,89.8597,627.4446,-38.3191,235.6538,-153.489,263.3445,83.0512
255335,SLG,30,1.038478,-30.9581,1.049654,-150.5452,1.043782,89.7658,518.8319,-43.3244,245.655,-167.3332,277.1211,71.4145
255335,SLG,40,1.039995,-30.855,1.048728,-150.5214,1.043863,89.7099,460.322,-43.7765,245.8792,-167.3081,276.8841,71.4375
255335,LL,0,0.937831,-31.3259,0.893428,-151.8679,1.08502,88.6624,4871.6804,-71.4578,4980.0095,138.6662,298.6494,84.6418
255335,LL,10,1.028468,-30.9849,1.037366,-151.962,1.055997,89.7987,919.5331,-39.0142,959.5274,-160.8991,259.7923,83.1993
255335,LL,20,1.036311,-30.8187,1.04335,-151.2813,1.051005,89.7027,619.3133,-37.2771,609.3995,-156.5937,260.538,83.3772
255335,LL,30,1.038094,-30.7213,1.043664,-150.993,1.047748,89.6738,515.2498,-42.8275,491.8015,-161.7913,275.271,71.3304
255335,LL,40,1.039609,-30.677,1.044307,-150.8631,1.046888,89.6439,458.3496,-43.4917,430.566,-162.1917,275.4652,71.3818
255335,3LG,0,0.918036,-32.3943,0.918311,-152.392,0.91833,87.6194,5495.6626,-86.2094,5489.541,153.7547,5488.4667,33.7683
255335,3LG,10,1.037435,-31.3785,1.038991,-151.333,1.037663,88.6774,966.1948,-39.3334,936.924,-158.2649,961.0084,80.8932
255335,3LG,20,1.040542,-30.9609,1.042026,-150.9071,1.040648,89.0958,636.7041,-42.0461,605.2198,-160.7825,631.7612,78.1969
255335,3LG,30,1.041875,-30.82,1.043332,-150.7633,1.041935,89.237,520.0352,-42.7297,487.985,-161.3202,515.27,77.5245
255335,3LG,40,1.042522,-30.7472,1.043963,-150.6892,1.042558,89.3097,460.73,-43.4122,428.3615,-161.927,456.0762,76.8468
182030,SLG,0,0.915018,-30.3015,1.059505,-153.5105,1.088947,91.4751,3343.3775,-87.6853,274.7874,-152.4625,249.8423,87.4848
182030,SLG,10,1.026711,-31.6504,1.057264,-150.8088,1.045802,90.1592,938.0792,-42.1406,237.9903,-153.6066,262.9646,82.9163
182030,SLG,20,1.036431,-31.1762,1.052838,-150.6305,1.04517,89.8586,626.1588,-38.3924,235.659,-153.4892,263.3429,83.0554
182030,SLG,30,1.038478,-30.9565,1.049642,-150.5453,1.04379,89.7653,518.3102,-43.3746,245.6604,-167.3329,277.1178,71.4157
182030,SLG,40,1.039995,-30.8541,1.048721,-150.5215,1.043868,89.7096,460.0331,-43.8104,245.8831,-167.308,276.8822,71.4383
182030,LL,0,0.943267,-31.3213,0.900298,-152.0062,1.083923,88.7127,4643.6974,-70.6302,4761.3147,140.0343,298.1981,84.5041
182030,LL,10,1.028589,-30.9793,1.037313,-151.9494,1.055934,89.7941,915.1781,-39.1042,954.9564,-161.0729,259.8455,83.2056
182030,LL,20,1.036344,-30.8167,1.043322,-151.278,1.050992,89.7011,618.0445,-37.3245,608.2722,-156.6802,260.5597,83.3787
182030,LL,30,1.038108,-30.7203,1.04365,-150.9916,1.047743,89.6731,514.6996,-42.8637,491.3752,-161.8481,275.276,71.3313
182030,LL,40,1.039617,-30.6764,1.044298,-150.8623,1.046885,89.6435,458.0371,-43.5166,430.3365,-162.2299,275.4679,71.3823
182030,3LG,0,0.924836,-32.4297,0.925161,-152.4263,0.925147,87.5857,5240.511,-85.0799,5233.2826,154.8823,5232.936,34.8983
182030,3LG,10,1.037434,-31.3722,1.038987,-151.3265,1.037658,88.6837,962.0879,-39.4639,932.7526,-158.3984,956.9163,80.7618
182030,3LG,20,1.040539,-30.9592,1.042022,-150.9054,1.040643,89.0975,635.7075,-42.1148,604.2047,-160.8543,630.7706,78.1278
182030,3LG,30,1.041873,-30.8192,1.043329,-150.7626,1.041933,89.2377,519.5974,-42.7706,487.5381,-161.3635,514.8351,77.4833
182030,3LG,40,1.042521,-30.7468,1.043961,-150.6887,1.042556,89.3101,460.4869,-43.4395,428.1131,-161.9561,455.8348,76.8194
182153,SLG,0,0.941562,-30.8495,1.059998,-152.8481,1.077693,91.2217,2719.4884,-82.6399,267.426,-153.1124,254.7003,86.4289
182153,SLG,10,1.02714,-31.5734,1.056639,-150.8065,1.046065,90.1279,906.1851,-43.0349,238.2218,-153.6476,263.1736,82.9775
182153,SLG,20,1.03544,-31.1246,1.051183,-150.5975,1.043846,89.8648,623.276,-43.7754,245.9048,-167.4149,277.6209,71.3981
182153,SLG,30,1.038491,-30.9455,1.049553,-150.5462,1.043844,89.7615,514.5928,-43.7187,245.7872,-167.342,277.1802,71.4211
182153,SLG,40,1.039999,-30.8477,1.04867,-150.5221,1.0439,89.7074,457.9337,-44.0473,245.9396,-167.3139,276.934,71.4409
182153,LL,0,0.971362,-31.4589,0.933086,-152.4984,1.077024,88.9466,3569.3495,-64.1005,3790.2292,148.1705,295.2705,83.8269
182153,LL,10,1.029559,-30.9375,1.036976,-151.8701,1.055508,89.7611,881.6704,-39.4929,927.2657,-162.022,260.5368,83.1845
182153,LL,20,1.036611,-30.8008,1.043134,-151.2567,1.050902,89.6894,607.9841,-37.5898,601.2835,-157.1865,260.8363,83.3635
182153,LL,30,1.038224,-30.7122,1.043546,-150.9822,1.047709,89.6674,510.206,-43.1001,488.6643,-162.1938,275.4158,71.3259
182153,LL,40,1.039682,-30.6715,1.044234,-150.8569,1.046867,89.6401,455.4513,-43.6869,428.8454,-162.4677,275.5682,71.3774
182153,3LG,0,0.956917,-32.6449,0.957564,-152.6339,0.957289,87.3813,4089.4064,-77.4162,4075.1281,162.5512,4080.52,42.5725
182153,3LG,10,1.03756,-31.3326,1.039104,-151.2855,1.037763,88.7237,933.8154,-40.0178,904.1069,-158.9631,928.6434,80.1951
182153,3LG,20,1.040548,-30.9481,1.042028,-150.8938,1.040645,89.1088,628.3914,-42.4701,596.7478,-161.2263,623.4429,77.7623
182153,3LG,30,1.041872,-30.814,1.043328,-150.7571,1.041928,89.2431,516.3015,-42.9965,484.1582,-161.6032,511.5244,77.2489
182153,3LG,40,1.042519,-30.7438,1.043959,-150.6856,1.042552,89.3133,458.6263,-43.5975,426.194,-162.1258,453.9602,76.6539
182158,SLG,0,0.949878,-30.8896,1.059316,-152.6539,1.074773,91.1052,2522.1647,-81.6835,265.3293,-153.3755,256.5549,86.1993
182158,SLG,10,1.02724,-31.5433,1.056401,-150.8071,1.04619,90.1167,894.8523,-43.4797,238.2921,-153.6584,263.2041,83.0029
182158,SLG,20,1.035438,-31.1155,1.051113,-150.5985,1.043895,89.862,620.4094,-44.0326,245.9525,-167.4174,277.6259,71.4023
182158,SLG,30,1.038485,-30.9411,1.04952,-150.5468,1.043869,89.7602,513.3196,-43.8776,245.8221,-167.3447,277.1876,71.4226
182158,SLG,40,1.039994,-30.8452,1.048651,-150.5225,1.043915,89.7067,457.2233,-44.1557,245.963,-167.3161,276.9412,71.4414
182158,LL,0,0.978154,-31.4077,0.942768,-152.4256,1.074641,89.0019,3279.5967,-63.1635,3490.9007,149.4718,293.9461,83.6034
182158,LL,10,1.029911,-30.9216,1.036768,-151.8402,1.055358,89.7475,870.1715,-39.686,918.0891,-162.5228,260.7631,83.1781
182158,LL,20,1.03671,-30.7945,1.043033,-151.2487,1.050874,89.6846,604.3982,-37.7142,599.0458,-157.4439,260.928,83.3576
182158,LL,30,1.038266,-30.7088,1.043493,-150.9787,1.0477,89.665,508.6072,-43.2036,487.883,-162.3587,275.4563,71.323
182158,LL,40,1.039706,-30.6695,1.044201,-150.855,1.046863,89.6387,454.5293,-43.7609,428.4344,-162.5794,275.5963,71.3748
182158,3LG,0,0.965051,-32.5328,0.965815,-152.5169,0.965422,87.498,3760.3161,-76.2575,3743.3702,163.7042,3751.1817,43.7316
182158,3LG,10,1.037562,-31.3185,1.039099,-151.271,1.037756,88.7377,924.6896,-40.3197,894.8572,-159.2745,919.5873,79.8909
182158,3LG,20,1.040539,-30.9441,1.042017,-150.8897,1.040634,89.1128,626.0634,-42.6398,594.3835,-161.4048,621.1397,77.5919
182158,3LG,30,1.041867,-30.8121,1.043321,-150.7552,1.041921,89.2449,515.2576,-43.1012,483.0953,-161.7145,510.4922,77.1437
182158,3LG,40,1.042515,-30.7427,1.043954,-150.6845,1.042547,89.3143,458.0395,-43.6695,425.5952,-162.2029,453.3801,76.5816
182162,SLG,0,0.956816,-30.903,1.058625,-152.4936,1.072442,91.0025,2356.6913,-80.953,263.4508,-153.587,257.7168,86.0374
182162,SLG,10,1.027329,-31.5151,1.05618,-150.8078,1.046311,90.1064,884.3521,-43.9138,238.3313,-153.6611,263.2089,83.0312
182162,SLG,20,1.036485,-31.1346,1.052512,-150.6334,1.045375,89.8444,611.1283,-39.3447,235.869,-153.5259,263.4661,83.0915
182162,SLG,30,1.038477,-30.937,1.049489,-150.5474,1.043894,89.759,512.1488,-44.032,245.8437,-167.3452,277.1843,71.4252
182162,SLG,40,1.039987,-30.8428,1.048633,-150.5229,1.04393,89.706,456.576,-44.2606,245.9783,-167.3168,276.9403,71.4428
182162,LL,0,0.983541,-31.3581,0.95066,-152.334,1.072599,89.0451,3046.1492,-62.5034,3244.4883,150.3976,292.7404,83.3872
182162,LL,10,1.030242,-30.9072,1.036567,-151.8122,1.055219,89.7348,859.6396,-39.8649,909.674,-163.0134,260.9304,83.1826
182162,LL,20,1.036805,-30.7884,1.042933,-151.2413,1.050848,89.6799,601.047,-37.8297,597.0205,-157.6969,260.9941,83.3575
182162,LL,30,1.038307,-30.7057,1.04344,-150.9756,1.047693,89.6627,507.1086,-43.3,487.2042,-162.5188,275.4789,71.3229
182162,LL,40,1.039728,-30.6675,1.044168,-150.8532,1.04686,89.6373,453.6656,-43.8296,428.0873,-162.687,275.6109,71.3744
182162,3LG,0,0.971477,-32.4201,0.972339,-152.3998,0.971842,87.6148,3493.3545,-75.4443,3474.1521,164.5107,3484.0792,44.5441
182162,3LG,10,1.037561,-31.3056,1.039091,-151.2577,1.037746,88.7505,916.3997,-40.6099,886.452,-159.5744,911.3647,79.5984
182162,3LG,20,1.04053,-30.9404,1.042005,-150.8859,1.040622,89.1164,623.9503,-42.8006,592.2381,-161.5742,619.0517,77.4305
182162,3LG,30,1.041861,-30.8104,1.043313,-150.7535,1.041914,89.2466,514.3135,-43.1993,482.1349,-161.819,509.5603,77.0453
182162,3LG,40,1.042511,-30.7417,1.043949,-150.6834,1.042543,89.3153,457.5109,-43.7361,425.0568,-162.2743,452.8586,76.5148
